Circuit: * E:\sem_15\1.asc

WARNING: Node N007 is floating.
WARNING: Node N006 is floating.
WARNING: Node N009 is floating.
WARNING: Node N011 is floating.
WARNING: Node N010 is floating.
WARNING: Node N005 is floating.

Model "nmos": Oxide thickness thinner than recommended for a level 1 MOSFET.
Instance "m1": Length shorter than recommended for a level 1 MOSFET.
Instance "m10": Length shorter than recommended for a level 1 MOSFET.
Instance "m8": Length shorter than recommended for a level 1 MOSFET.
Instance "m6": Length shorter than recommended for a level 1 MOSFET.
Instance "m5": Length shorter than recommended for a level 1 MOSFET.
Model "pmos": Oxide thickness thinner than recommended for a level 1 MOSFET.
Instance "m12": Length shorter than recommended for a level 1 MOSFET.
Instance "m11": Length shorter than recommended for a level 1 MOSFET.
Instance "m7": Length shorter than recommended for a level 1 MOSFET.
Instance "m4": Length shorter than recommended for a level 1 MOSFET.
Instance "m3": Length shorter than recommended for a level 1 MOSFET.

Date: Thu Jun 02 18:40:43 2022
Total elapsed time: 0.552 seconds.

tnom = 27
temp = 27
method = trap
totiter = 566
traniter = 0
tranpoints = 0
accept = 0
rejected = 0
matrix size = 16
fillins = 0
solver = Normal
Matrix Compiler1: 1.34 KB object code size  0.8/0.3/[0.3]
Matrix Compiler2: 1.67 KB object code size  0.4/0.5/[0.3]

