Circuit: * D:\Wicirelllis\sem_14\Draft6.asc

Model "neb": Oxide thickness thinner than recommended for a level 1 MOSFET.
Instance "m8": Length shorter than recommended for a level 1 MOSFET.
Instance "m8": Width narrower than recommended for a level 1 MOSFET.
Instance "m7": Length shorter than recommended for a level 1 MOSFET.
Instance "m7": Width narrower than recommended for a level 1 MOSFET.
Instance "m6": Length shorter than recommended for a level 1 MOSFET.
Instance "m6": Width narrower than recommended for a level 1 MOSFET.
Instance "m2": Length shorter than recommended for a level 1 MOSFET.
Instance "m2": Width narrower than recommended for a level 1 MOSFET.
Model "peb": Oxide thickness thinner than recommended for a level 1 MOSFET.
Instance "m5": Length shorter than recommended for a level 1 MOSFET.
Instance "m5": Width narrower than recommended for a level 1 MOSFET.
Instance "m4": Length shorter than recommended for a level 1 MOSFET.
Instance "m4": Width narrower than recommended for a level 1 MOSFET.
Instance "m3": Length shorter than recommended for a level 1 MOSFET.
Instance "m3": Width narrower than recommended for a level 1 MOSFET.
Instance "m1": Length shorter than recommended for a level 1 MOSFET.
Instance "m1": Width narrower than recommended for a level 1 MOSFET.
Direct Newton iteration for .op point succeeded.

Date: Mon May 16 19:36:32 2022
Total elapsed time: 0.071 seconds.

tnom = 27
temp = 27
method = modified trap
totiter = 3169
traniter = 3164
tranpoints = 1293
accept = 1174
rejected = 119
matrix size = 14
fillins = 0
solver = Normal
Matrix Compiler1: 546 באיע object code size  0.2/0.0/[0.0]
Matrix Compiler2: 1,24 ֱ object code size  0.1/0.1/[0.1]


