Circuit: * C:\Users\Wicirelllis\Documents\LTspiceXVII\sem_3\task_2c.asc

Direct Newton iteration for .op point succeeded.

v_max: MAX(v(a))=0.500004 FROM 0 TO 0.003
v_min: MIN(v(a))=-1.99344 FROM 0 TO 0.003
v_avg: AVG(v(a))=-0.217498 FROM 0 TO 0.003


Date: Mon Jan 24 21:22:35 2022
Total elapsed time: 0.056 seconds.

tnom = 27
temp = 27
method = modified trap
totiter = 2109
traniter = 2106
tranpoints = 1042
accept = 1042
rejected = 0
matrix size = 3
fillins = 0
solver = Normal
Matrix Compiler1: 86 bytes object code size  0.0/0.0/[0.0]
Matrix Compiler2: off  [0.0]/0.0/0.0

