Circuit: * C:\Users\Wicirelllis\Documents\LTspiceXVII\sem_3\task_2b.asc

Direct Newton iteration for .op point succeeded.
.step x=-0.003
.step x=-0.0029
.step x=-0.0028
.step x=-0.0027
.step x=-0.0026
.step x=-0.0025
.step x=-0.0024
.step x=-0.0023
.step x=-0.0022
.step x=-0.0021
.step x=-0.002
.step x=-0.0019
.step x=-0.0018
.step x=-0.0017
.step x=-0.0016
.step x=-0.0015
.step x=-0.0014
.step x=-0.0013
.step x=-0.0012
.step x=-0.0011
.step x=-0.001
.step x=-0.0009
.step x=-0.0008
.step x=-0.0007
.step x=-0.0006
.step x=-0.0005
.step x=-0.0004
.step x=-0.0003
.step x=-0.0002
.step x=-0.0001
.step x=-1.11131e-018
.step x=0.0001
.step x=0.0002
.step x=0.0003
.step x=0.0004
.step x=0.0005
.step x=0.0006
.step x=0.0007
.step x=0.0008
.step x=0.0009
.step x=0.001
.step x=0.0011
.step x=0.0012
.step x=0.0013
.step x=0.0014
.step x=0.0015
.step x=0.0016
.step x=0.0017
.step x=0.0018
.step x=0.0019
.step x=0.002
.step x=0.0021
.step x=0.0022
.step x=0.0023
.step x=0.0024
.step x=0.0025
.step x=0.0026
.step x=0.0027
.step x=0.0028
.step x=0.0029
.step x=0.003


Measurement: v
  step	AVG(v(a))	FROM	TO
     1	-2.9965	0	0.003
     2	-2.8966	0	0.003
     3	-2.7967	0	0.003
     4	-2.6968	0	0.003
     5	-2.5969	0	0.003
     6	-2.497	0	0.003
     7	-2.3971	0	0.003
     8	-2.2972	0	0.003
     9	-2.1973	0	0.003
    10	-2.0974	0	0.003
    11	-1.9975	0	0.003
    12	-1.8976	0	0.003
    13	-1.7977	0	0.003
    14	-1.6978	0	0.003
    15	-1.5979	0	0.003
    16	-1.498	0	0.003
    17	-1.3981	0	0.003
    18	-1.2982	0	0.003
    19	-1.1983	0	0.003
    20	-1.0984	0	0.003
    21	-0.998501	0	0.003
    22	-0.898601	0	0.003
    23	-0.798701	0	0.003
    24	-0.698801	0	0.003
    25	-0.598901	0	0.003
    26	-0.499001	0	0.003
    27	-0.399101	0	0.003
    28	-0.299201	0	0.003
    29	-0.199301	0	0.003
    30	-0.0994006	0	0.003
    31	0.0004995	0	0.003
    32	0.1004	0	0.003
    33	0.2003	0	0.003
    34	0.3002	0	0.003
    35	0.4001	0	0.003
    36	0.5	0	0.003
    37	0.5	0	0.003
    38	0.5	0	0.003
    39	0.5	0	0.003
    40	0.5	0	0.003
    41	0.5	0	0.003
    42	0.500001	0	0.003
    43	0.500001	0	0.003
    44	0.500001	0	0.003
    45	0.500001	0	0.003
    46	0.500001	0	0.003
    47	0.500001	0	0.003
    48	0.500001	0	0.003
    49	0.500001	0	0.003
    50	0.500001	0	0.003
    51	0.500001	0	0.003
    52	0.500002	0	0.003
    53	0.500002	0	0.003
    54	0.500002	0	0.003
    55	0.500002	0	0.003
    56	0.500002	0	0.003
    57	0.500002	0	0.003
    58	0.500002	0	0.003
    59	0.500002	0	0.003
    60	0.500002	0	0.003
    61	0.500003	0	0.003


Date: Mon Jan 24 21:24:44 2022
Total elapsed time: 0.782 seconds.

tnom = 27
temp = 27
method = modified trap
totiter = 2085
traniter = 2082
tranpoints = 1042
accept = 1042
rejected = 0
matrix size = 3
fillins = 0
solver = Normal
Matrix Compiler1: 86 bytes object code size  0.0/0.0/[0.0]
Matrix Compiler2: 163 bytes object code size  0.0/0.0/[0.0]

