Circuit: * D:\Wicirelllis\sem 1\Draft2.asc

.OP point found by inspection.

Date: Mon Jan 10 15:00:17 2022
Total elapsed time: 0.013 seconds.

tnom = 27
temp = 27
method = modified trap
totiter = 2305
traniter = 2305
tranpoints = 1046
accept = 1046
rejected = 0
matrix size = 2
fillins = 0
solver = Normal
Matrix Compiler1: 36 байт object code size  0.1/0.1/[0.0]
Matrix Compiler2:       9 opcodes  0.1/[0.0]/0.0


