Circuit: * D:\Wicirelllis\sem 1\task_3.asc

.OP point found by inspection.

Date: Mon Jan 10 15:48:24 2022
Total elapsed time: 0.037 seconds.

tnom = 27
temp = 27
method = modified trap
totiter = 3888
traniter = 3888
tranpoints = 1658
accept = 1451
rejected = 207
matrix size = 6
fillins = 0
solver = Normal
Matrix Compiler1: 200 байт object code size  0.1/0.1/[0.0]
Matrix Compiler2: 394 байт object code size  0.1/0.1/[0.0]


