Circuit: * D:\Wicirelllis\sem 1\task_1.asc

V1: Missing value, assumed 0V @ DC
.OP point found by inspection.

Date: Mon Jan 10 15:25:05 2022
Total elapsed time: 0.009 seconds.

tnom = 27
temp = 27
method = trap
totiter = 201
traniter = 0
tranpoints = 0
accept = 0
rejected = 0
matrix size = 3
fillins = 0
solver = Normal
Matrix Compiler1: 86 байт object code size  0.0/0.0/[0.0]
Matrix Compiler2: 163 байт object code size  0.0/0.1/[0.0]


