Circuit: * D:\Wicirelllis\sem_17\2.asc

Direct Newton iteration for .op point succeeded.

Date: Tue May 31 10:05:51 2022
Total elapsed time: 0.073 seconds.

tnom = 27
temp = 27
method = modified trap
totiter = 5753
traniter = 5730
tranpoints = 2866
accept = 2101
rejected = 765
matrix size = 14
fillins = 2
solver = Normal
Matrix Compiler1: 546 байт object code size  0.1/0.1/[0.0]
Matrix Compiler2: off  [0.1]/0.2/0.3


