Circuit: * D:\Wicirelllis\sem_16\1.asc


Date: Fri May 27 09:59:44 2022
Total elapsed time: 0.012 seconds.

tnom = 27
temp = 27
method = trap
totiter = 549
traniter = 0
tranpoints = 0
accept = 0
rejected = 0
matrix size = 6
fillins = 0
solver = Normal
Matrix Compiler1: 280 байт object code size  0.1/0.1/[0.1]
Matrix Compiler2: 428 байт object code size  0.0/0.1/[0.0]


