Circuit: * D:\Wicirelllis\sem_16\2.b.asc

Direct Newton iteration for .op point succeeded.

Date: Fri May 27 10:38:56 2022
Total elapsed time: 0.132 seconds.

tnom = 27
temp = 27
method = modified trap
totiter = 2090
traniter = 2083
tranpoints = 1042
accept = 1042
rejected = 0
matrix size = 8
fillins = 0
solver = Normal
Matrix Compiler1: 442 байт object code size  0.3/0.1/[0.1]
Matrix Compiler2: off  [0.1]/0.2/0.1


