Circuit: * D:\Wicirelllis\sem_16\2.c.asc

Direct Newton iteration for .op point succeeded.
.step x=-1 r=950000
.step x=0 r=950000
.step x=1 r=950000
.step x=-1 r=1e+009
.step x=0 r=1e+009
.step x=1 r=1e+009

Date: Fri May 27 10:47:34 2022
Total elapsed time: 0.678 seconds.

tnom = 27
temp = 27
method = modified trap
totiter = 2097
traniter = 2084
tranpoints = 1042
accept = 1042
rejected = 0
matrix size = 8
fillins = 0
solver = Normal
Matrix Compiler1: 442 байт object code size  0.3/0.2/[0.1]
Matrix Compiler2: off  [0.1]/0.1/0.2


