Circuit: * D:\Wicirelllis\sem_16\2.asc

Direct Newton iteration for .op point succeeded.

Date: Fri May 27 10:26:25 2022
Total elapsed time: 0.075 seconds.

tnom = 27
temp = 27
method = modified trap
totiter = 2525
traniter = 2519
tranpoints = 1136
accept = 1106
rejected = 30
matrix size = 6
fillins = 0
solver = Normal
Matrix Compiler1: 280 байт object code size  0.2/0.1/[0.0]
Matrix Compiler2: off  [0.1]/0.2/0.1


