Circuit: * D:\Wicirelllis\sem_16\3.asc

Direct Newton iteration for .op point succeeded.

Date: Fri May 27 10:57:50 2022
Total elapsed time: 0.042 seconds.

tnom = 27
temp = 27
method = modified trap
totiter = 2090
traniter = 2085
tranpoints = 1042
accept = 1042
rejected = 0
matrix size = 9
fillins = 0
solver = Normal
Matrix Compiler1: 430 байт object code size  0.1/0.1/[0.0]
Matrix Compiler2: off  [0.1]/0.1/0.1


